Bridge Rectifier Circuit

V1 0 1 0.001 AC 1 SIN(1 1)
D1 2 1 mydiode
D2 2 0 mydiode
D3 1 3 mydiode
D4 0 3 mydiode
R1 1 2 10




.op


.tran 10u 1000u uic

.control
run
write
display
print all
plot v(1)
.endc

.end
